rawData/ieee11cdf.txt
 08/19/93 UW ARCHIVE           100.0  1962 W IEEE 14 Bus Test Case
BUS DATA FOLLOWS                            14 ITEMS
   1 Bus 1     HV  1  1  3 1.030  20.20      0.0      0.0    700.0   185.0     0.0  1.030     0.0     0.0   0.0    0.0        0
   2 Bus 2     HV  1  1  2 1.010  10.50     21.7     12.7    700.0   235.0     0.0  1.010    50.0   -40.0   0.0    0.0        0
   3 Bus 3     HV  2  1  2 1.030  -6.80     94.2     19.0    719.0   176.0     0.0  1.030    40.0     0.0   0.0    0.0        0
   4 Bus 4     HV  2  1  2 1.010 -17.00     47.8     -3.9    700.0   202.0     0.0  1.010     0.0     0.0   0.0    0.0        0
   5 Bus 5     HV  1  1  0 1.020  -8.78      7.6      1.6      0.0     0.0     0.0  0.0       0.0     0.0   0.0    0.0        0
   6 Bus 6     LV  1  1  0 1.070 -14.22     11.2      7.5      0.0    12.2     0.0  0.0      24.0    -6.0   0.0    0.0        0
   7 Bus 7     ZV  1  1  0 1.062 -13.37    967.0    100.0      0.0   200.0     0.0  0.0       0.0     0.0   0.0    0.0        0
   8 Bus 8     TV  3  1  0 1.090 -13.36   1767.0    100.0      0.0   350.0     0.0  0.0      24.0    -6.0   0.0    0.0        0
   9 Bus 9     LV  2  1  0 1.056 -14.94     29.5     16.6      0.0     0.0     0.0  0.0       0.0     0.0   0.0    0.19       0
  10 Bus 10    LV  2  1  0 1.051 -15.10      9.0      5.8      0.0     0.0     0.0  0.0       0.0     0.0   0.0    0.0        0
  11 Bus 11    LV  2  1  0 1.057 -14.79      3.5      1.8      0.0     0.0     0.0  0.0       0.0     0.0   0.0    0.0        0
-999 
BRANCH DATA FOLLOWS                         20 ITEMS
   1    5  1  1 1 0  0.00000   0.15000     0.0        0     0     0    0 0  0.0       0.0 0.0    0.0     0.0    0.0   0.0
   2    6  1  1 1 0  0.00000   0.15000     0.0        0     0     0    0 0  0.0       0.0 0.0    0.0     0.0    0.0   0.0
   3   11  2  1 1 0  0.00000   0.15000     0.0        0     0     0    0 0  0.0       0.0 0.0    0.0     0.0    0.0   0.0
   4   10  2  1 1 0  0.00000   0.15000     0.0        0     0     0    0 0  0.0       0.0 0.0    0.0     0.0    0.0   0.0
   5    6  1  1 1 0  0.00250   0.02500     0.04375    0     0     0    0 0  0.0       0.0 0.0    0.0     0.0    0.0   0.0
   6    7  1  1 1 0  0.00100   0.01000     0.01750    0     0     0    0 0  0.0       0.0 0.0    0.0     0.0    0.0   0.0
   7    8  1  1 1 0  0.01100   0.11000     0.19250    0     0     0    0 0  0.0       0.0 0.0    0.0     0.0    0.0   0.0
   8    9  2  1 1 0  0.01100   0.11000     0.19250    0     0     0    0 0  0.0       0.0 0.0    0.0     0.0    0.0   0.0
   9   10  2  1 1 0  0.00100   0.01000     0.01750    0     0     0    0 0  0.0       0.0 0.0    0.0     0.0    0.0   0.0
  10   11  2  1 1 0  0.00250   0.02500     0.04375    0     0     0    0 0  0.0       0.0 0.0    0.0     0.0    0.0   0.0
-999
LOSS ZONES FOLLOWS                     1 ITEMS
  1 IEEE 9 BUS
-99
INTERCHANGE DATA FOLLOWS                 1 ITEMS
 1    2 Bus 2     HV    0.0  999.99  IEEE14  IEEE 14 Bus Test Case
-9
TIE LINES FOLLOWS                     0 ITEMS
-999
END OF DATA
